
     RDKit          3D

 16 15  0  0  0  0  0  0  0  0999 V2000
    2.7150    0.4213    0.5736 O   0  0  0  0  0  0  0  0  0  0  0  0
    1.9694    0.5743   -0.3825 C   0  0  0  0  0  0  0  0  0  0  0  0
    1.8633    1.7964   -0.9514 O   0  0  0  0  0  0  0  0  0  0  0  0
    1.0898   -0.4866   -1.0254 C   0  0  0  0  0  0  0  0  0  0  0  0
    1.8294   -1.6003   -1.3274 F   0  0  0  0  0  0  0  0  0  0  0  0
    0.5700   -0.0775   -2.2227 F   0  0  0  0  0  0  0  0  0  0  0  0
   -0.0355   -0.8799   -0.0848 C   0  0  0  0  0  0  0  0  0  0  0  0
    0.4689   -1.4114    1.0632 F   0  0  0  0  0  0  0  0  0  0  0  0
   -0.7563   -1.8886   -0.6619 F   0  0  0  0  0  0  0  0  0  0  0  0
   -0.9507    0.2788    0.2316 C   0  0  0  0  0  0  0  0  0  0  0  0
   -0.2600    1.2686    0.8677 F   0  0  0  0  0  0  0  0  0  0  0  0
   -1.4276    0.8409   -0.9137 F   0  0  0  0  0  0  0  0  0  0  0  0
   -2.0992   -0.1937    1.1022 C   0  0  0  0  0  0  0  0  0  0  0  0
   -2.9280    0.8354    1.4134 F   0  0  0  0  0  0  0  0  0  0  0  0
   -1.6731   -0.7161    2.2752 F   0  0  0  0  0  0  0  0  0  0  0  0
   -2.8591   -1.1333    0.4952 F   0  0  0  0  0  0  0  0  0  0  0  0
  1  2  2  0
  2  3  1  0
  2  4  1  0
  4  5  1  0
  4  6  1  0
  4  7  1  0
  7  8  1  0
  7  9  1  0
  7 10  1  0
 10 11  1  0
 10 12  1  0
 10 13  1  0
 13 14  1  0
 13 15  1  0
 13 16  1  0
M  END
$$$$
